Version 4
SHEET 1 3576 1432
WIRE 1472 -672 1280 -672
WIRE 1536 -672 1472 -672
WIRE 1616 -672 1536 -672
WIRE 1728 -672 1696 -672
WIRE 1984 -672 1792 -672
WIRE 2368 -672 2080 -672
WIRE 2640 -672 2368 -672
WIRE 3136 -672 2640 -672
WIRE 1280 -624 1280 -672
WIRE 1984 -576 1984 -672
WIRE 2080 -576 2080 -672
WIRE 1472 -560 1472 -672
WIRE 2640 -560 2640 -672
WIRE 2368 -544 2368 -672
WIRE 1280 -496 1280 -560
WIRE 1280 -496 896 -496
WIRE 896 -448 896 -496
WIRE 896 -304 896 -368
WIRE 1472 -304 1472 -496
WIRE 1472 -304 896 -304
WIRE 1280 -272 1280 -496
WIRE 1472 -272 1472 -304
WIRE 2368 -224 2368 -480
WIRE 2448 -224 2368 -224
WIRE 2640 -224 2640 -480
WIRE 2640 -224 2448 -224
WIRE 2448 -144 2448 -224
WIRE 1536 -48 1536 -672
WIRE 2016 -48 1536 -48
WIRE 2176 -48 2080 -48
WIRE 1280 -32 1280 -208
WIRE 1376 -32 1280 -32
WIRE 1472 -32 1472 -208
WIRE 1472 -32 1376 -32
WIRE 3136 -32 3136 -672
WIRE 1376 48 1376 -32
WIRE 1760 192 1760 -656
WIRE 2176 192 2176 -48
WIRE 3136 192 3136 32
WIRE 1088 224 1040 224
WIRE 1232 224 1184 224
WIRE 1504 224 1296 224
WIRE 1728 224 1504 224
WIRE 2144 224 1792 224
WIRE 2736 224 2208 224
WIRE 2944 224 2832 224
WIRE 3104 224 3008 224
WIRE 3216 224 3168 224
WIRE 3536 224 3296 224
WIRE 1264 256 1264 240
WIRE 1264 336 1264 256
WIRE 1360 336 1264 336
WIRE 1504 336 1504 224
WIRE 1504 336 1424 336
FLAG 2448 -144 0
FLAG 1040 224 d
FLAG 3536 224 0
FLAG 1984 -544 0
FLAG 2080 -544 0
FLAG 2032 -512 d
FLAG 1376 48 0
SYMBOL ind 1600 -656 R270
WINDOW 0 32 56 VTop 2
WINDOW 3 5 56 VBottom 2
SYMATTR InstName L1
SYMATTR Value 0.5m
SYMBOL cap 2352 -544 R0
SYMATTR InstName C1
SYMATTR Value 800µ
SYMBOL res 2624 -576 R0
SYMATTR InstName R1
SYMATTR Value 80
SYMBOL LTspiceControlLibrary\\TransferFunctions\\Proportional 3104 -16 R90
SYMATTR Value K=1/80
SYMATTR InstName U2
SYMBOL voltage 3200 224 R270
WINDOW 123 0 0 Left 0
WINDOW 39 0 0 Left 0
SYMATTR InstName V3
SYMATTR Value 5
SYMBOL LTspiceControlLibrary\\Math\\Operands\\sub 3152 192 R180
SYMATTR InstName U3
SYMBOL LTspiceControlLibrary\\Math\\Operands\\sub 1776 192 R180
SYMATTR InstName U6
SYMBOL LTspiceControlLibrary\\Sensors\\CurrentSensor 1760 -672 R0
SYMATTR InstName U1
SYMBOL ccm1 2032 -560 R0
SYMATTR InstName X1
SYMBOL LTspiceControlLibrary\\TransferFunctions\\Integral 2992 192 R180
SYMATTR Value T=0.02
SYMATTR InstName U4
SYMBOL LTspiceControlLibrary\\TransferFunctions\\1stOrderLag 2816 192 R180
SYMATTR Value K=1 T=11.4m
SYMATTR InstName U5
SYMBOL LTspiceControlLibrary\\TransferFunctions\\Integral 1408 304 R180
SYMATTR Value T=159u
SYMATTR InstName U7
SYMBOL LTspiceControlLibrary\\Math\\Operands\\add 1280 256 M0
SYMATTR InstName U8
SYMBOL LTspiceControlLibrary\\TransferFunctions\\1stOrderLag 1168 192 R180
SYMATTR Value K=0.18 T=4.6u
SYMATTR InstName U9
SYMBOL LTspiceControlLibrary\\Math\\Operands\\mul 2192 192 R180
SYMATTR InstName U11
SYMBOL LTspiceControlLibrary\\TransferFunctions\\Proportional 2032 -16 R0
SYMATTR Value K=1/300
SYMATTR InstName U12
SYMBOL diode 1296 -560 R180
WINDOW 0 24 64 Left 2
WINDOW 3 24 0 Left 2
SYMATTR InstName D1
SYMBOL diode 1488 -496 R180
WINDOW 0 24 64 Left 2
WINDOW 3 24 0 Left 2
SYMATTR InstName D2
SYMBOL diode 1296 -208 R180
WINDOW 0 24 64 Left 2
WINDOW 3 24 0 Left 2
SYMATTR InstName D3
SYMBOL diode 1488 -208 R180
WINDOW 0 24 64 Left 2
WINDOW 3 24 0 Left 2
SYMATTR InstName D4
SYMBOL bv 896 -464 R0
SYMATTR InstName B1
SYMATTR Value V=325*sin(2*pi*50*time)
TEXT 1568 -792 Left 2 !.tran 0 5 0 1m
