Version 4
SHEET 1 2908 680
WIRE 1280 -1904 -880 -1904
WIRE 2736 -1904 1344 -1904
WIRE 1904 -1728 1856 -1728
WIRE 2208 -1728 2112 -1728
WIRE 2608 -1728 2272 -1728
WIRE 2736 -1728 2736 -1904
WIRE 2736 -1728 2672 -1728
WIRE 2800 -1728 2736 -1728
WIRE 1856 -1648 1856 -1728
WIRE 1856 -1648 1472 -1648
WIRE 1856 -1552 1856 -1648
WIRE 1904 -1552 1856 -1552
WIRE 2240 -1552 2240 -1696
WIRE 2240 -1552 2112 -1552
WIRE 1904 -1312 1728 -1312
WIRE 2640 -1312 2640 -1696
WIRE 2640 -1312 2112 -1312
WIRE 496 -1056 416 -1056
WIRE 656 -1056 560 -1056
WIRE -880 -976 -880 -1904
WIRE 656 -976 656 -1056
WIRE -880 -960 -880 -976
WIRE 656 -960 656 -976
WIRE -912 -944 -1440 -944
WIRE -752 -944 -848 -944
WIRE -576 -944 -688 -944
WIRE 224 -944 -480 -944
WIRE 240 -944 224 -944
WIRE 416 -944 416 -1056
WIRE 416 -944 288 -944
WIRE 624 -944 416 -944
WIRE 736 -944 688 -944
WIRE 1472 -944 1472 -1648
WIRE 1472 -944 832 -944
WIRE 2000 -928 1952 -928
WIRE 2304 -928 2208 -928
WIRE 2672 -928 2368 -928
WIRE 1728 -864 1728 -1312
WIRE 1952 -864 1952 -928
WIRE 1952 -864 1728 -864
WIRE -1440 -768 -1440 -944
WIRE 1952 -752 1952 -864
WIRE 2000 -752 1952 -752
WIRE 2336 -752 2336 -896
WIRE 2336 -752 2208 -752
WIRE -1440 -624 -1440 -688
WIRE 1728 -560 1728 -864
WIRE 1728 -416 1728 -480
WIRE 2672 -80 2672 -928
WIRE 1728 -48 1680 -48
WIRE 2032 -48 1936 -48
WIRE 2640 -48 2096 -48
WIRE 2848 -48 2704 -48
WIRE 2864 -48 2848 -48
WIRE 1472 32 1472 -944
WIRE 1680 32 1680 -48
WIRE 1680 32 1472 32
WIRE 1680 128 1680 32
WIRE 1728 128 1680 128
WIRE 2064 128 2064 -16
WIRE 2064 128 1936 128
WIRE 256 272 256 -912
WIRE 1232 272 256 272
WIRE 2864 272 2864 -48
WIRE 2864 272 1296 272
FLAG -1440 -624 0
FLAG 1728 -416 0
FLAG 2848 -48 current
FLAG 2800 -1728 Voltage
SYMBOL LTspiceControlLibrary\\TransferFunctions\\2ndOrderBandPassFilter 1744 -16 R0
SYMATTR Value K=51200 w=870 z=9m
SYMATTR InstName U1
SYMBOL LTspiceControlLibrary\\TransferFunctions\\2ndOrderLag 1744 160 R0
SYMATTR Value K=33 w=870 z=9m
SYMATTR InstName U2
SYMBOL LTspiceControlLibrary\\Math\\Operands\\add 2048 -16 R0
SYMATTR InstName U3
SYMBOL voltage -1440 -784 R0
WINDOW 123 24 124 Left 2
WINDOW 39 0 0 Left 0
SYMATTR Value2 AC 1
SYMATTR InstName V1
SYMATTR Value PULSE(0 5 2m 1n 1n 40)
SYMBOL LTspiceControlLibrary\\Math\\Operands\\sub 240 -912 R0
SYMATTR InstName U12
SYMBOL LTspiceControlLibrary\\Math\\Operands\\add 2656 -80 M180
SYMATTR InstName U13
SYMBOL voltage 1728 -576 R0
WINDOW 123 24 124 Left 2
WINDOW 39 0 0 Left 0
SYMATTR Value2 AC 0
SYMATTR InstName V2
SYMATTR Value PULSE(0 1 3m 1n 1n 5m)
SYMBOL LTspiceControlLibrary\\TransferFunctions\\2ndOrderLag 1920 -1280 R0
SYMATTR Value K=1.82 w=870 z=9m
SYMATTR InstName U17
SYMBOL LTspiceControlLibrary\\Math\\Operands\\add 2624 -1696 R0
SYMATTR InstName U18
SYMBOL LTspiceControlLibrary\\TransferFunctions\\Proportional 1328 -1936 R180
SYMATTR Value K=1/80
SYMATTR InstName U19
SYMBOL LTspiceControlLibrary\\TransferFunctions\\Proportional 1280 240 R180
SYMATTR InstName U21
SYMBOL LTspiceControlLibrary\\TransferFunctions\\2ndOrderBandPassFilter 2016 -896 R0
SYMATTR Value K=128 w=870 z=9m
SYMATTR InstName U4
SYMBOL LTspiceControlLibrary\\TransferFunctions\\2ndOrderLag 2016 -720 R0
SYMATTR Value K=41.322m w=870 z=9m
SYMATTR InstName U5
SYMBOL LTspiceControlLibrary\\Math\\Operands\\add 2320 -896 R0
SYMATTR InstName U6
SYMBOL LTspiceControlLibrary\\TransferFunctions\\Integral 512 -1024 R0
SYMATTR Value T=159u
SYMATTR InstName U7
SYMBOL LTspiceControlLibrary\\Math\\Operands\\add 640 -976 M180
SYMATTR InstName U8
SYMBOL LTspiceControlLibrary\\TransferFunctions\\1stOrderLag 752 -912 R0
SYMATTR Value K=0.18 T=4.6u
SYMATTR InstName U9
SYMBOL LTspiceControlLibrary\\Math\\Operands\\sub -896 -976 M180
SYMATTR InstName U10
SYMBOL LTspiceControlLibrary\\TransferFunctions\\2ndOrderBandPassFilter 1920 -1696 R0
SYMATTR Value K=-727.27 w=870 z=9m
SYMATTR InstName U11
SYMBOL LTspiceControlLibrary\\TransferFunctions\\2ndOrderLag 1920 -1520 R0
SYMATTR Value K=727.27 w=870 z=9m
SYMATTR InstName U14
SYMBOL LTspiceControlLibrary\\Math\\Operands\\add 2224 -1696 R0
SYMATTR InstName U15
SYMBOL LTspiceControlLibrary\\TransferFunctions\\Integral -736 -912 R0
SYMATTR Value T=0.02
SYMATTR InstName U16
SYMBOL LTspiceControlLibrary\\TransferFunctions\\1stOrderLag -560 -912 R0
SYMATTR Value K=1 T=11.4m
SYMATTR InstName U20
TEXT -1472 -600 Left 2 !.tran 0 3 0 1m
TEXT 1784 56 Left 2 ;Plant Model Gid
TEXT 2056 -824 Left 2 ;Vg disturbance model
TEXT 1960 -1624 Left 2 ;Plant Model Gid
